20
Ксилоза
C 10.00 10.00 0.00
C 10.00 8.46 0.00
C 10.00 6.92 0.00
C 10.00 5.38 0.00
C 10.00 3.84 0.00
H 8.90 10.00 0.00
H 8.90 8.46 0.00
H 12.39 8.46 0.00 
H 11.10 6.92 0.00
H 7.61 6.92 0.00
H 8.90 5.38 0.00
H 12.39 5.38 0.00
H 8.90 3.84 0.00
H 11.10 3.84 0.00
H 10.00 1.45 0.00
O 11.21 10.00 0.00
O 11.43 8.46 0.00
O 8.57 6.92 0.00
O 11.43 5.38 0.00
O 10.00 2.41 0.00